Mass spectrum: Carbazole; ESI-ITFT; MS2; CE: 35%; R=30000; [M+H]+
Name: Carbazole
Name: 9H-carbazole
Formula: C12H9N
Exact mass: 167.0735
SMILES: c1ccc2c(c1)c1ccccc1[nH]2
InChI: InChI=1S/C12H9N/c1-3-7-11-9(5-1)10-6-2-4-8-12(10)13-11/h1-8,13H
Instrument: LTQ Orbitrap XL Thermo Scientific
Instrument type: ESI-ITFT
Ms type: MS2
Ion mode: POSITIVE
Ionization: ESI
Fragmentation mode: CID
Collision energy: 35 % (nominal)
Resolution: 30000
Column name: N/A
Retention time: N/A min
Base peak: 168.0808
Precursor m/z: 168.0808
Precursor type: [M+H]+
m/z	relative intensity	assigned
115.0167	45	C6HN3+
168.0809	999	C12H10N+
