Mass spectrum: Triethylene glycol monomethyl ether; LC-ESI-ITFT; MS2; CE: 25%; R=15000; [M+H]+
Name: Triethylene glycol monomethyl ether
Name: 2-[2-(2-methoxyethoxy)ethoxy]ethanol
Formula: C7H16O4
Exact mass: 164.1049
SMILES: COCCOCCOCCO
InChI: InChI=1S/C7H16O4/c1-9-4-5-11-7-6-10-3-2-8/h8H,2-7H2,1H3
Instrument: LTQ Orbitrap XL Thermo Scientific
Instrument type: LC-ESI-ITFT
Ms type: MS2
Ion mode: POSITIVE
Ionization: ESI
Fragmentation mode: HCD
Collision energy: 25 % (nominal)
Resolution: 15000
Column name: Kinetex Evo C18 2.6 um 50 x 2.1 mm
Retention time: 1.410 min
Base peak: 165.1119
Precursor m/z: 165.1121
Precursor type: [M+H]+
m/z	relative intensity	assigned
59.049	661	C3H7O+
103.0753	999	C5H11O2+
