Mass spectrum: Chlorotoluron-OH-desmethyl (TENTATIVE); LC-ESI-QFT; MS2; CE: 30%; R=70000; [M+H]+
Name: Chlorotoluron-OH-desmethyl
Formula: C9H11ClN2O2
Exact mass: 214.05
SMILES: C(*)C1=C(c(*)=C(C(*)=C(*)1)NC(=O)N(C(*)))Cl  * = [OH (n=1) & H (n=4)]
Instrument: Q Exactive Plus Orbitrap Thermo Scientific
Instrument type: LC-ESI-QFT
Ms type: MS2
Ion mode: POSITIVE
Ionization: ESI
Fragmentation mode: HCD
Collision energy: 30% (nominal)
Resolution: 70000
Column name: Waters UPLC BEH C18 1.7 um 2.1 mm x 100 mm with pre-column
Retention time: 8.54 min
Precursor m/z: 215.0578
Precursor type: [M+H]+
Mass spectrum: Metoclopramide; LC-ESI-ITFT; MS2; CE: 55%; R=15000; [M+H]+
Name: Metoclopramide
Name: 4-amino-5-chloro-N-[2-(diethylamino)ethyl]-2-methoxybenzamide
Formula: C14H22ClN3O2
Exact mass: 299.1401
SMILES: CCN(CC)CCNC(=O)C1=CC(=C(C=C1OC)N)Cl
InChI: InChI=1S/C14H22ClN3O2/c1-4-18(5-2)7-6-17-14(19)10-8-11(15)12(16)9-13(10)20-3/h8-9H,4-7,16H2,1-3H3,(H,17,19)
Instrument: LTQ Orbitrap XL Thermo Scientific
Instrument type: LC-ESI-ITFT
Ms type: MS2
Ion mode: POSITIVE
Ionization: ESI
Fragmentation mode: CID
Collision energy: 55% (nominal)
Resolution: 15000
Column name: Kinetex Evo C18 2.6 um 50 x 2.1 mm
Retention time: 2.916 min
Base peak: 300.1474
Precursor m/z: 300.1473
Precursor type: [M+H]+
m/z	relative intensity	assigned
58.029	68	
65.0386	2	
66.0466	3	
77.0385	2	
85.0284	2	
92.0494	17	
93.0573	999	
98.9996	2	
104.0494	3	
105.0574	8	
110.0602	2	
113.0152	4	
122.9997	18	
126.0105	7	
128.0262	557	
129.0101	4	
139.0059	4	
140.0262	158	
154.0056	6	
158.0368	74	
184.0161	12	C8H7ClNO2+
212.0343	1	C9H9ClN2O2+
227.0582	999	C10H12ClN2O2+
